
     RDKit          3D

 63 66  0  0  0  0  0  0  0  0999 V2000
   -3.9275    0.1262    0.2141 C   0  0  0  0  0  0  0  0  0  0  0  0
   -4.8086   -0.7821   -0.3373 C   0  0  0  0  0  0  0  0  0  0  0  0
    2.3401    0.6413    1.7248 S   0  0  0  0  0  6  0  0  0  0  0  0
   -2.6329   -0.1736    0.3693 N   0  0  0  0  0  0  0  0  0  0  0  0
   -2.0908   -1.3726    0.0039 C   0  0  0  0  0  0  0  0  0  0  0  0
   -6.0331   -0.2634   -0.3854 N   0  0  0  0  0  0  0  0  0  0  0  0
   -4.2817   -1.9844   -0.7074 C   0  0  0  0  0  0  0  0  0  0  0  0
   -2.9440   -2.2445   -0.5272 N   0  0  0  0  0  0  0  0  0  0  0  0
   -5.9663    0.9355    0.1122 N   0  0  0  0  0  0  0  0  0  0  0  0
   -4.7038    1.2477    0.5032 C   0  0  0  0  0  0  0  0  0  0  0  0
   -0.6682   -1.6117    0.2132 C   0  0  0  0  0  0  0  0  0  0  0  0
    2.9932    1.6834    0.5152 N   0  0  0  0  0  0  0  0  0  0  0  0
    1.4310   -0.6698    1.0265 C   0  0  0  0  0  0  0  0  0  0  0  0
    0.0842   -0.5632    0.7795 C   0  0  0  0  0  0  0  0  0  0  0  0
    3.4678    0.1586    2.5861 O   0  0  0  0  0  0  0  0  0  0  0  0
    1.4556    1.5140    2.6036 O   0  0  0  0  0  0  0  0  0  0  0  0
    5.8208    1.9439    0.8799 N   0  0  0  0  0  0  0  0  0  0  0  0
    3.9112    1.0049   -0.3609 C   0  0  0  0  0  0  0  0  0  0  0  0
    3.5483    2.8660    1.1020 C   0  0  0  0  0  0  0  0  0  0  0  0
   -0.0055   -2.7653   -0.0907 C   0  0  0  0  0  0  0  0  0  0  0  0
   -5.0435   -2.8414   -1.2128 O   0  0  0  0  0  0  0  0  0  0  0  0
    2.0785   -1.8368    0.7144 C   0  0  0  0  0  0  0  0  0  0  0  0
    1.3537   -2.8886    0.1529 C   0  0  0  0  0  0  0  0  0  0  0  0
    5.2589    0.7730    0.2829 C   0  0  0  0  0  0  0  0  0  0  0  0
    4.8996    2.6623    1.7083 C   0  0  0  0  0  0  0  0  0  0  0  0
   -7.2635   -0.8834   -0.8943 C   0  0  0  0  0  0  0  0  0  0  0  0
   -4.2595    2.5059    1.0968 C   0  0  0  0  0  0  0  0  0  0  0  0
   -0.6650   -3.8227   -0.6397 O   0  0  0  0  0  0  0  0  0  0  0  0
    6.5828    2.7651   -0.0140 C   0  0  0  0  0  0  0  0  0  0  0  0
   -0.2055   -5.0650   -1.0275 C   0  0  0  0  0  0  0  0  0  0  0  0
   -3.5597    3.4285    0.1440 C   0  0  0  0  0  0  0  0  0  0  0  0
    0.8342   -4.8991   -2.1077 C   0  0  0  0  0  0  0  0  0  0  0  0
   -2.3245    2.8162   -0.4396 C   0  0  0  0  0  0  0  0  0  0  0  0
   -2.6315   -3.1699   -0.8325 H   0  0  0  0  0  0  0  0  0  0  0  0
   -0.4629    0.3501    1.0149 H   0  0  0  0  0  0  0  0  0  0  0  0
    4.0649    1.5524   -1.2911 H   0  0  0  0  0  0  0  0  0  0  0  0
    3.4819    0.0236   -0.6151 H   0  0  0  0  0  0  0  0  0  0  0  0
    2.8670    3.2534    1.8741 H   0  0  0  0  0  0  0  0  0  0  0  0
    3.6499    3.6348    0.3020 H   0  0  0  0  0  0  0  0  0  0  0  0
    3.1369   -1.8994    0.9166 H   0  0  0  0  0  0  0  0  0  0  0  0
    1.9342   -3.7729   -0.0587 H   0  0  0  0  0  0  0  0  0  0  0  0
    5.9504    0.4445   -0.5320 H   0  0  0  0  0  0  0  0  0  0  0  0
    5.2448   -0.0548    1.0197 H   0  0  0  0  0  0  0  0  0  0  0  0
    4.8735    2.1977    2.7149 H   0  0  0  0  0  0  0  0  0  0  0  0
    5.3412    3.6834    1.8717 H   0  0  0  0  0  0  0  0  0  0  0  0
   -7.1598   -1.9665   -0.6758 H   0  0  0  0  0  0  0  0  0  0  0  0
   -8.1531   -0.5398   -0.3259 H   0  0  0  0  0  0  0  0  0  0  0  0
   -7.3610   -0.7782   -1.9843 H   0  0  0  0  0  0  0  0  0  0  0  0
   -3.5524    2.2956    1.9304 H   0  0  0  0  0  0  0  0  0  0  0  0
   -5.1642    3.0463    1.4802 H   0  0  0  0  0  0  0  0  0  0  0  0
    7.3706    3.3540    0.4950 H   0  0  0  0  0  0  0  0  0  0  0  0
    7.1397    2.0638   -0.6961 H   0  0  0  0  0  0  0  0  0  0  0  0
    5.9549    3.3941   -0.6587 H   0  0  0  0  0  0  0  0  0  0  0  0
    0.1569   -5.7012   -0.1909 H   0  0  0  0  0  0  0  0  0  0  0  0
   -1.0605   -5.6191   -1.4886 H   0  0  0  0  0  0  0  0  0  0  0  0
   -4.2065    3.7324   -0.7098 H   0  0  0  0  0  0  0  0  0  0  0  0
   -3.3320    4.3811    0.6797 H   0  0  0  0  0  0  0  0  0  0  0  0
    0.4752   -5.2633   -3.0950 H   0  0  0  0  0  0  0  0  0  0  0  0
    1.0483   -3.8240   -2.2640 H   0  0  0  0  0  0  0  0  0  0  0  0
    1.7727   -5.3922   -1.7955 H   0  0  0  0  0  0  0  0  0  0  0  0
   -1.7704    3.6411   -0.9531 H   0  0  0  0  0  0  0  0  0  0  0  0
   -1.6611    2.4246    0.3429 H   0  0  0  0  0  0  0  0  0  0  0  0
   -2.6237    2.1034   -1.2148 H   0  0  0  0  0  0  0  0  0  0  0  0
  2  1  2  0
  3 13  1  0
  4  1  1  0
  5  4  2  0
  6  2  1  0
  7  2  1  0
  8  5  1  0
  9 10  2  0
 10  1  1  0
 11  5  1  0
 12  3  1  0
 13 14  2  0
 14 11  1  0
 15  3  2  0
 16  3  2  0
 17 25  1  0
 18 12  1  0
 19 12  1  0
 20 11  2  0
 21  7  2  0
 22 23  2  0
 23 20  1  0
 24 18  1  0
 25 19  1  0
 26  6  1  0
 27 10  1  0
 28 20  1  0
 29 17  1  0
 30 28  1  0
 31 27  1  0
 32 30  1  0
 33 31  1  0
  9  6  1  0
  8  7  1  0
 22 13  1  0
 17 24  1  0
  8 34  1  0
 14 35  1  0
 18 36  1  0
 18 37  1  0
 19 38  1  0
 19 39  1  0
 22 40  1  0
 23 41  1  0
 24 42  1  0
 24 43  1  0
 25 44  1  0
 25 45  1  0
 26 46  1  0
 26 47  1  0
 26 48  1  0
 27 49  1  0
 27 50  1  0
 29 51  1  0
 29 52  1  0
 29 53  1  0
 30 54  1  0
 30 55  1  0
 31 56  1  0
 31 57  1  0
 32 58  1  0
 32 59  1  0
 32 60  1  0
 33 61  1  0
 33 62  1  0
 33 63  1  0
M  END
$$$$
